*DSSAT Cropping System Model Ver. 4.5.1.023 -Stub         OCT 08, 2013; 17:09:14

 Unit  Filename
  101  OPCLR
   21  FILEIO
  102  SIMCDE
   25  DSPRO
   22  DTACDE
  103  RUNLST
   11  FILEW
   92  WORK.OUT
  104  READS.OUT
  105  FNAMETMP
   23  FILETMP
  106  OUTS
   65  SEVAL
  107  FILECO2
   69  OUTO
   13  FILESS
   39  PlantGro.OUT
   40  PlantN.OUT
  108  PlantGr2.OUT
  109  PlantGrf.OUT
   91  WARNING.OUT
   10  FINPUT
   88  OUTINFO
