*DSSAT Cropping System Model Ver. 4.5.1.023 -Stub         JAN 17, 2014; 13:10:37

 Unit  Filename
  101  OPCLR
   21  FILEIO
  102  SIMCDE
   25  DSPRO
   22  DTACDE
  103  RUNLST
   11  FILEW
   69  OUTO
   10  FILEC
  104  OUTS
   65  SEVAL
  105  FILECO2
   13  FILESS
    8  FILEA
   91  WARNING.OUT
   88  OUTINFO
