*DSSAT Cropping System Model Ver. 4.0.2.000               Jan 07, 2013; 23:16:21

*RUN 421        : 550p_No_N_no_H2O         
 MODEL          : MZCER040 - MAIZE     
 EXPERIMENT     : R1234567 MZ  template, A1B CO2                                
 TREATMENT 16   : 550p_No_N_no_H2O         

 CROP           : MAIZE          CULTIVAR : MEDIUM SEASON    ECOTYPE :IB0001
 STARTING DATE  : JAN  1 2000
 PLANTING DATE  : AUTOMATIC PLANTING PLANTS/m2 :  6.5     ROW SPACING :  91.cm 
 WEATHER        : GENE   2000
 SOIL           : XY01234567     TEXTURE : L     - HWSD DATABASE, SOIL 4893 
 SOIL INITIAL C : DEPTH:100cm EXTR. H2O:105.6mm  NO3:  1.4kg/ha  NH4:  1.4kg/ha
 WATER BALANCE  : RAINFED
 IRRIGATION     : NOT IRRIGATED
 NITROGEN BAL.  : SOIL-N & N-UPTAKE SIMULATION; NO N-FIXATION
 N-FERTILIZER   :        0 kg/ha IN     0 APPLICATIONS
 RESIDUE/MANURE : INITIAL :     0 kg/ha ;    1000 kg/ha IN     1 APPLICATIONS
 ENVIRONM. OPT. : DAYL= A  0.00  SRAD= A  0.00  TMAX= A  0.00  TMIN= A  0.00  
                  RAIN= A  0.00  CO2 = R 550.0  DEW = A  0.00  WIND= A  0.00  
 SIMULATION OPT : WATER   :Y  NITROGEN:Y  N-FIX:N  PHOSPH :N  PESTS  :N
                  PHOTO   :C  ET      :F  INFIL:S  HYDROL :R  SOM    :G
 MANAGEMENT OPT : PLANTING:A  IRRIG   :N  FERT :D  RESIDUE:A  HARVEST:M  WTH:M

*SUMMARY OF SOIL AND GENETIC INPUT PARAMETERS

   SOIL LOWER UPPER   SAT  EXTR  INIT   ROOT   BULK     pH    NO3    NH4    ORG
  DEPTH LIMIT LIMIT    SW    SW    SW   DIST   DENS                          C
   cm   cm3/cm3    cm3/cm3    cm3/cm3         g/cm3         ugN/g  ugN/g     %
-------------------------------------------------------------------------------
  0-  5 0.115 0.250 0.427 0.135 0.250   1.00   1.41   6.20   0.10   0.10   0.82
  5- 15 0.115 0.250 0.427 0.135 0.250   1.00   1.41   6.20   0.10   0.10   0.82
 15- 30 0.115 0.250 0.427 0.135 0.250   0.64   1.41   6.20   0.10   0.10   0.82
 30- 45 0.206 0.299 0.448 0.093 0.299   0.35   1.34   6.20   0.10   0.10   0.39
 45- 60 0.206 0.299 0.448 0.093 0.299   0.35   1.34   6.20   0.10   0.10   0.39
 60- 80 0.206 0.299 0.448 0.093 0.299   0.35   1.34   6.20   0.10   0.10   0.39
 80-100 0.206 0.299 0.448 0.093 0.299   0.35   1.34   6.20   0.10   0.10   0.39

TOT-100  17.9  28.4  44.2  10.6  28.4  <--cm   -  kg/ha-->    1.4    1.4  71268
SOIL ALBEDO    : 0.13      EVAPORATION LIMIT : 9.60         MIN. FACTOR  : 1.00
RUNOFF CURVE # :73.00      DRAINAGE RATE     : 0.40         FERT. FACTOR : 1.00

 MAIZE      CULTIVAR :990002-MEDIUM SEASON      ECOTYPE :IB0001
 P1     : 200.00  P2     : 0.3000  P5     : 800.00
 G2     : 700.00  G3     :  8.500  PHINT  : 38.900



