*DSSAT Cropping System Model Ver. 4.5.1.023 -Stub         NOV 19, 2013; 15:24:22

 Unit  Filename
  101  OPCLR
   21  FILEIO
  102  SIMCDE
   91  WARNING.OUT
   25  DSPRO
   22  DTACDE
  103  RUNLST
   11  FILEW
   69  OUTO
   10  FILEC
  104  OUTS
   65  SEVAL
  105  FILECO2
   13  FILESS
    8  FILEA
   88  OUTINFO
